project/outputs/reanudacion_20260910/psse_suite/solved_raw/suite_m_integrated_30bus_nominal_solved.raw
@!IC, SBASE,REV,XFRRAT,NXFRAT,BASFRQ
0,   100.00, 34,     0,     1, 50.00     / PSS(R)E-34.9    THU, SEP 10 2026  11:23
SUITE_M_INTEGRATED_30BUS_NOMINAL
30-BUS MODERATE INTEGRATED ACCEPTANCE CASE
GENERAL, THRSHZ=0.0001, PQBRAK=0.97, BLOWUP=5.0
GAUSS, ITMX=100, ACCP=1.6, ACCQ=1.6, ACCM=1.0, TOL=0.0001
NEWTON, ITMXN=40, ACCN=1.0, TOLN=0.1, VCTOLQ=0.1, VCTOLV=0.00001, DVLIM=0.99, NDVFCT=0.99
ADJUST, ADJTHR=0.005, ACCTAP=1.0, TAPLIM=0.05, SWVBND=100.0, MXTPSS=25, MXSWIM=10
TYSL, ITMXTY=20, ACCTY=1.0, TOLTY=0.00001
SOLVER, FNSL, ACTAPS=1, AREAIN=0, PHSHFT=0, DCTAPS=1, SWSHNT=2, FLATST=0, VARLIM=1, NONDIV=0
RATING, 1, "RATE1 ", "RATING SET 1                    "
RATING, 2, "RATE2 ", "RATING SET 2                    "
RATING, 3, "RATE3 ", "RATING SET 3                    "
RATING, 4, "RATE4 ", "RATING SET 4                    "
RATING, 5, "RATE5 ", "RATING SET 5                    "
RATING, 6, "RATE6 ", "RATING SET 6                    "
RATING, 7, "RATE7 ", "RATING SET 7                    "
RATING, 8, "RATE8 ", "RATING SET 8                    "
RATING, 9, "RATE9 ", "RATING SET 9                    "
RATING,10, "RATE10", "RATING SET 10                   "
RATING,11, "RATE11", "RATING SET 11                   "
RATING,12, "RATE12", "RATING SET 12                   "
0 / END OF SYSTEM-WIDE DATA, BEGIN BUS DATA
@!   I,'NAME        ', BASKV, IDE,AREA,ZONE,OWNER, VM,        VA,    NVHI,   NVLO,   EVHI,   EVLO
     1,'SLACK_500   ', 500.0000,3,   1,  10,   1,1.02000,   0.0000,1.10000,0.90000,1.10000,0.90000
     2,'GEN_A_500   ', 500.0000,2,   1,  10,   1,1.07213,  -0.3805,1.10000,0.90000,1.10000,0.90000
     3,'GEN_B_500   ', 500.0000,2,   1,  10,   1,1.06462,  -0.4177,1.10000,0.90000,1.10000,0.90000
     4,'HUB_500     ', 500.0000,1,   1,  10,   1,1.04875,  -1.5398,1.10000,0.90000,1.10000,0.90000
     5,'REG_GEN_500 ', 500.0000,1,   1,  10,   1,1.01480,  -3.4975,1.10000,0.90000,1.10000,0.90000
     6,'DC_RECT_500 ', 500.0000,1,   1,  20,   1,0.98820,  -4.5969,1.10000,0.90000,1.10000,0.90000
     7,'DC_INV_345  ', 345.0000,1,   1,  20,   1,1.00467,  -0.2581,1.10000,0.90000,1.10000,0.90000
     8,'HUB_345     ', 345.0000,1,   1,  20,   1,1.01002,  -0.9457,1.10000,0.90000,1.10000,0.90000
     9,'INV_LOAD_345', 345.0000,1,   1,  20,   1,1.00418,  -1.1329,1.10000,0.90000,1.10000,0.90000
    10,'GEN_345     ', 345.0000,2,   1,  20,   1,1.01500,   0.0442,1.10000,0.90000,1.10000,0.90000
    11,'HUB_230     ', 230.0000,1,   1,  30,   1,1.02223,  -3.4854,1.10000,0.90000,1.10000,0.90000
    12,'TIE_230     ', 230.0000,1,   1,  30,   1,1.01254,  -6.5284,1.10000,0.90000,1.10000,0.90000
    13,'REG_Q_230   ', 230.0000,1,   1,  30,   1,1.01500,  -7.7381,1.10000,0.90000,1.10000,0.90000
    14,'SHUNT_A_230 ', 230.0000,1,   1,  30,   1,1.01530,  -7.7398,1.10000,0.90000,1.10000,0.90000
    15,'SHUNT_B_230 ', 230.0000,1,   1,  30,   1,1.01530,  -7.7398,1.10000,0.90000,1.10000,0.90000
    16,'STATCON_230 ', 230.0000,1,   1,  30,   1,1.02079,  -8.1582,1.10000,0.90000,1.10000,0.90000
    17,'LOAD_230    ', 230.0000,1,   1,  30,   1,1.01769,  -8.7198,1.10000,0.90000,1.10000,0.90000
    18,'XF_A_HV_230 ', 230.0000,1,   1,  40,   1,1.01324,  -6.6778,1.10000,0.90000,1.10000,0.90000
    19,'XF_A_LV_115 ', 115.0000,1,   1,  40,   1,1.01432,  -6.9366,1.10000,0.90000,1.10000,0.90000
    20,'LOAD_A_115  ', 115.0000,1,   1,  40,   1,1.00523,  -7.8750,1.10000,0.90000,1.10000,0.90000
    21,'GEN_AUX_13  ',  13.8000,2,   1,  40,   1,1.02500,  -6.0956,1.10000,0.90000,1.10000,0.90000
    22,'XF_B_HV_230 ', 230.0000,1,   1,  40,   1,1.01471,  -7.7381,1.10000,0.90000,1.10000,0.90000
    23,'XF_B_LV_132 ', 132.0000,1,   1,  40,   1,1.01363,  -7.7384,1.10000,0.90000,1.10000,0.90000
    24,'LOAD_B_132  ', 132.0000,1,   1,  40,   1,1.01280,  -7.7353,1.10000,0.90000,1.10000,0.90000
    25,'GEN_B_132   ', 132.0000,2,   1,  40,   1,1.02000,  -6.9409,1.10000,0.90000,1.10000,0.90000
    26,'SWD_FROM_230', 230.0000,1,   1,  50,   1,1.00725,  -7.4269,1.10000,0.90000,1.10000,0.90000
    27,'SWD_LOAD_230', 230.0000,1,   1,  50,   1,1.00725,  -7.4269,1.10000,0.90000,1.10000,0.90000
    28,'CSHUNT_230  ', 230.0000,1,   1,  50,   1,1.00610,  -7.8579,1.10000,0.90000,1.10000,0.90000
    29,'PQB_MOD_230 ', 230.0000,1,   1,  50,   1,1.01044,  -8.3235,1.10000,0.90000,1.10000,0.90000
    30,'END_GEN_230 ', 230.0000,2,   1,  50,   1,1.02000,  -8.0420,1.10000,0.90000,1.10000,0.90000
0 / END OF BUS DATA, BEGIN LOAD DATA
@!   I,'ID',STAT,AREA,ZONE,      PL,        QL,        IP,        IQ,        YP,        YQ, OWNER,SCALE,INTRPT,  DGENP,     DGENQ, DGENF
     5,'1 ',   1,   1,  10,    50.000,    18.000,     0.000,     0.000,     0.000,     0.000,   1,    1,  0,     0.000,     0.000,   0
     9,'1 ',   1,   1,  20,    40.000,    14.000,     0.000,     0.000,     0.000,     0.000,   1,    1,  0,     0.000,     0.000,   0
    12,'1 ',   1,   1,  30,    30.000,    12.000,     0.000,     0.000,     0.000,     0.000,   1,    1,  0,     0.000,     0.000,   0
    13,'1 ',   1,   1,  30,    25.000,    10.000,     0.000,     0.000,     0.000,     0.000,   1,    1,  0,     0.000,     0.000,   0
    17,'1 ',   1,   1,  30,    35.000,    14.000,     0.000,     0.000,     0.000,     0.000,   1,    1,  0,     0.000,     0.000,   0
    20,'1 ',   1,   1,  40,    25.000,    10.000,     0.000,     0.000,     0.000,     0.000,   1,    1,  0,     0.000,     0.000,   0
    24,'1 ',   1,   1,  40,    30.000,    12.000,     0.000,     0.000,     0.000,     0.000,   1,    1,  0,     0.000,     0.000,   0
    27,'1 ',   1,   1,  50,    20.000,     8.000,     0.000,     0.000,     0.000,     0.000,   1,    1,  0,     0.000,     0.000,   0
    29,'1 ',   1,   1,  50,    25.000,    10.000,     0.000,     0.000,     0.000,     0.000,   1,    1,  0,     0.000,     0.000,   0
0 / END OF LOAD DATA, BEGIN FIXED SHUNT DATA
@!   I,'ID',STATUS,  GL,        BL
    17,'1 ',1,     0.000,     8.000
0 / END OF FIXED SHUNT DATA, BEGIN GENERATOR DATA
@!   I,'ID',      PG,        QG,        QT,        QB,     VS,    IREG,     MBASE,     ZR,         ZX,         RT,         XT,     GTAP,STAT, RMPCT,      PT,        PB,    O1,    F1,  O2,    F2,  O3,    F3,  O4,    F4,WMOD, WPF,NREG
     1,'1 ',    28.970,  -399.982,   600.000,  -600.000,1.02000,     1,   100.000, 0.00000E+0, 1.00000E+0, 0.00000E+0, 0.00000E+0,1.00000,1,  100.0,   500.000,  -100.000,   1,1.0000
     2,'1 ',    70.000,   300.000,   300.000,  -100.000,1.02000,     5,   100.000, 0.00000E+0, 1.00000E+0, 0.00000E+0, 0.00000E+0,1.00000,1,   60.0,   180.000,     0.000,   1,1.0000
     3,'1 ',    60.000,   240.000,   240.000,   -80.000,1.02000,     5,   100.000, 0.00000E+0, 1.00000E+0, 0.00000E+0, 0.00000E+0,1.00000,1,   40.0,   160.000,     0.000,   1,1.0000
    10,'1 ',    45.000,     8.615,    90.000,   -40.000,1.01500,    10,   100.000, 0.00000E+0, 1.00000E+0, 0.00000E+0, 0.00000E+0,1.00000,1,  100.0,   120.000,     0.000,   1,1.0000
    21,'1 ',    20.000,    12.323,    35.000,   -15.000,1.02500,    21,   100.000, 0.00000E+0, 1.00000E+0, 0.00000E+0, 0.00000E+0,1.00000,1,  100.0,    50.000,     0.000,   1,1.0000
    25,'1 ',    30.000,    11.290,    60.000,   -30.000,1.02000,    25,   100.000, 0.00000E+0, 1.00000E+0, 0.00000E+0, 0.00000E+0,1.00000,1,  100.0,    80.000,     0.000,   1,1.0000
    30,'1 ',    30.000,    18.463,    50.000,   -25.000,1.02000,    30,   100.000, 0.00000E+0, 1.00000E+0, 0.00000E+0, 0.00000E+0,1.00000,1,  100.0,    80.000,     0.000,   1,1.0000
0 / END OF GENERATOR DATA, BEGIN BRANCH DATA
@!   I,     J,'CKT',     R,          X,         B,                    'N A M E'                 ,   RATE1,   RATE2,   RATE3,   RATE4,   RATE5,   RATE6,   RATE7,   RATE8,   RATE9,  RATE10,  RATE11,  RATE12,    GI,       BI,       GJ,       BJ,STAT,MET,  LEN,  O1,  F1,    O2,  F2,    O3,  F3,    O4,  F4
     1,     2,'1 ', 2.00000E-03, 2.50000E-02,   0.03000,'LINE01_02                               ',  600.00,  600.00,  600.00,    0.00,    0.00,    0.00,    0.00,    0.00,    0.00,    0.00,    0.00,    0.00,  0.00000,  0.00000,  0.00000,  0.00000,1,1,  50.00,   1,1.0000
     1,     3,'1 ', 2.00000E-03, 2.50000E-02,   0.03000,'LINE01_03                               ',  600.00,  600.00,  600.00,    0.00,    0.00,    0.00,    0.00,    0.00,    0.00,    0.00,    0.00,    0.00,  0.00000,  0.00000,  0.00000,  0.00000,1,1,  50.00,   1,1.0000
     2,     4,'1 ', 2.00000E-03, 3.00000E-02,   0.03000,'LINE02_04                               ',  550.00,  550.00,  550.00,    0.00,    0.00,    0.00,    0.00,    0.00,    0.00,    0.00,    0.00,    0.00,  0.00000,  0.00000,  0.00000,  0.00000,1,1,  40.00,   1,1.0000
     3,     4,'1 ', 2.00000E-03, 3.00000E-02,   0.03000,'LINE03_04                               ',  550.00,  550.00,  550.00,    0.00,    0.00,    0.00,    0.00,    0.00,    0.00,    0.00,    0.00,    0.00,  0.00000,  0.00000,  0.00000,  0.00000,1,1,  40.00,   1,1.0000
     4,     5,'1 ', 2.50000E-03, 3.50000E-02,   0.02500,'LINE04_05                               ',  500.00,  500.00,  500.00,    0.00,    0.00,    0.00,    0.00,    0.00,    0.00,    0.00,    0.00,    0.00,  0.00000,  0.00000,  0.00000,  0.00000,1,1,  35.00,   1,1.0000
     5,     6,'1 ', 2.50000E-03, 3.50000E-02,   0.02500,'RECT_FEED                               ',  500.00,  500.00,  500.00,    0.00,    0.00,    0.00,    0.00,    0.00,    0.00,    0.00,    0.00,    0.00,  0.00000,  0.00000,  0.00000,  0.00000,1,1,  35.00,   1,1.0000
     7,     8,'1 ', 3.00000E-03, 4.00000E-02,   0.02000,'INV_TIE_345                             ',  400.00,  400.00,  400.00,    0.00,    0.00,    0.00,    0.00,    0.00,    0.00,    0.00,    0.00,    0.00,  0.00000,  0.00000,  0.00000,  0.00000,1,1,  30.00,   1,1.0000
     7,     9,'1 ', 4.00000E-03, 5.00000E-02,   0.01500,'INV_LOAD_FEED                           ',  300.00,  300.00,  300.00,    0.00,    0.00,    0.00,    0.00,    0.00,    0.00,    0.00,    0.00,    0.00,  0.00000,  0.00000,  0.00000,  0.00000,1,1,  20.00,   1,1.0000
     8,     9,'1 ', 3.00000E-03, 4.00000E-02,   0.02000,'LINE08_09                               ',  300.00,  300.00,  300.00,    0.00,    0.00,    0.00,    0.00,    0.00,    0.00,    0.00,    0.00,    0.00,  0.00000,  0.00000,  0.00000,  0.00000,1,1,  20.00,   1,1.0000
     8,    10,'1 ', 3.00000E-03, 4.00000E-02,   0.02000,'GEN_345_FEED                            ',  300.00,  300.00,  300.00,    0.00,    0.00,    0.00,    0.00,    0.00,    0.00,    0.00,    0.00,    0.00,  0.00000,  0.00000,  0.00000,  0.00000,1,1,  20.00,   1,1.0000
    11,    12,'1 ', 5.00000E-03, 5.00000E-02,   0.01500,'LINE11_12                               ',  300.00,  300.00,  300.00,    0.00,    0.00,    0.00,    0.00,    0.00,    0.00,    0.00,    0.00,    0.00,  0.00000,  0.00000,  0.00000,  0.00000,1,1,  20.00,   1,1.0000
    12,    13,'1 ', 5.00000E-03, 5.00000E-02,   0.01500,'LINE12_13                               ',  300.00,  300.00,  300.00,    0.00,    0.00,    0.00,    0.00,    0.00,    0.00,    0.00,    0.00,    0.00,  0.00000,  0.00000,  0.00000,  0.00000,1,1,  20.00,   1,1.0000
    12,    18,'1 ', 6.00000E-03, 5.00000E-02,   0.01000,'XF_A_FEED                               ',  250.00,  250.00,  250.00,    0.00,    0.00,    0.00,    0.00,    0.00,    0.00,    0.00,    0.00,    0.00,  0.00000,  0.00000,  0.00000,  0.00000,1,1,  15.00,   1,1.0000
    12,    26,'1 ', 6.00000E-03, 5.00000E-02,   0.01000,'SWD_AREA_FEED                           ',  250.00,  250.00,  250.00,    0.00,    0.00,    0.00,    0.00,    0.00,    0.00,    0.00,    0.00,    0.00,  0.00000,  0.00000,  0.00000,  0.00000,1,1,  15.00,   1,1.0000
    13,    14,'1 ', 6.00000E-03, 6.00000E-02,   0.01000,'SHUNT_A_FEED                            ',  250.00,  250.00,  250.00,    0.00,    0.00,    0.00,    0.00,    0.00,    0.00,    0.00,    0.00,    0.00,  0.00000,  0.00000,  0.00000,  0.00000,1,1,  15.00,   1,1.0000
    13,    15,'1 ', 6.00000E-03, 6.00000E-02,   0.01000,'SHUNT_B_FEED                            ',  250.00,  250.00,  250.00,    0.00,    0.00,    0.00,    0.00,    0.00,    0.00,    0.00,    0.00,    0.00,  0.00000,  0.00000,  0.00000,  0.00000,1,1,  15.00,   1,1.0000
    13,    16,'1 ', 4.00000E-03, 4.00000E-02,   0.01000,'STATCON_FEED                            ',  250.00,  250.00,  250.00,    0.00,    0.00,    0.00,    0.00,    0.00,    0.00,    0.00,    0.00,    0.00,  0.00000,  0.00000,  0.00000,  0.00000,1,1,  10.00,   1,1.0000
    13,    22,'1 ', 6.00000E-03, 5.00000E-02,   0.01000,'XF_B_FEED                               ',  250.00,  250.00,  250.00,    0.00,    0.00,    0.00,    0.00,    0.00,    0.00,    0.00,    0.00,    0.00,  0.00000,  0.00000,  0.00000,  0.00000,1,1,  15.00,   1,1.0000
    16,    17,'1 ', 6.00000E-03, 6.00000E-02,   0.01000,'LOAD17_FEED                             ',  250.00,  250.00,  250.00,    0.00,    0.00,    0.00,    0.00,    0.00,    0.00,    0.00,    0.00,    0.00,  0.00000,  0.00000,  0.00000,  0.00000,1,1,  15.00,   1,1.0000
    17,    30,'1 ', 8.00000E-03, 7.00000E-02,   0.01000,'RETURN_TIE                              ',  180.00,  180.00,  180.00,    0.00,    0.00,    0.00,    0.00,    0.00,    0.00,    0.00,    0.00,    0.00,  0.00000,  0.00000,  0.00000,  0.00000,1,1,  20.00,   1,1.0000
    19,    20,'1 ', 8.00000E-03, 7.00000E-02,   0.00000,'LOAD_A_FEED                             ',  120.00,  120.00,  120.00,    0.00,    0.00,    0.00,    0.00,    0.00,    0.00,    0.00,    0.00,    0.00,  0.00000,  0.00000,  0.00000,  0.00000,1,1,   5.00,   1,1.0000
    23,    24,'1 ', 8.00000E-03, 7.00000E-02,   0.00000,'LOAD_B_FEED                             ',  150.00,  150.00,  150.00,    0.00,    0.00,    0.00,    0.00,    0.00,    0.00,    0.00,    0.00,    0.00,  0.00000,  0.00000,  0.00000,  0.00000,1,1,   5.00,   1,1.0000
    24,    25,'1 ', 6.00000E-03, 5.00000E-02,   0.00000,'GEN_B_132_FEED                          ',  150.00,  150.00,  150.00,    0.00,    0.00,    0.00,    0.00,    0.00,    0.00,    0.00,    0.00,    0.00,  0.00000,  0.00000,  0.00000,  0.00000,1,1,   5.00,   1,1.0000
    26,    27,'1 ', 8.00000E-03, 7.00000E-02,   0.01000,'SWD_PARALLEL_LINE                       ',  150.00,  150.00,  150.00,    0.00,    0.00,    0.00,    0.00,    0.00,    0.00,    0.00,    0.00,    0.00,  0.00000,  0.00000,  0.00000,  0.00000,1,1,  10.00,   1,1.0000
    27,    28,'1 ', 7.00000E-03, 6.00000E-02,   0.01000,'CSHUNT_FEED                             ',  150.00,  150.00,  150.00,    0.00,    0.00,    0.00,    0.00,    0.00,    0.00,    0.00,    0.00,    0.00,  0.00000,  0.00000,  0.00000,  0.00000,1,1,  10.00,   1,1.0000
    28,    29,'1 ', 7.00000E-03, 6.00000E-02,   0.01000,'PQB_MOD_FEED                            ',  150.00,  150.00,  150.00,    0.00,    0.00,    0.00,    0.00,    0.00,    0.00,    0.00,    0.00,    0.00,  0.00000,  0.00000,  0.00000,  0.00000,1,1,  10.00,   1,1.0000
    29,    30,'1 ', 6.00000E-03, 5.00000E-02,   0.01000,'END_GEN_FEED                            ',  180.00,  180.00,  180.00,    0.00,    0.00,    0.00,    0.00,    0.00,    0.00,    0.00,    0.00,    0.00,  0.00000,  0.00000,  0.00000,  0.00000,1,1,  10.00,   1,1.0000
0 / END OF BRANCH DATA, BEGIN SYSTEM SWITCHING DEVICE DATA
@!   I,     J,'CKT',          X,   RATE1,   RATE2,   RATE3,   RATE4,   RATE5,   RATE6,   RATE7,   RATE8,   RATE9,  RATE10,  RATE11,  RATE12, STAT,NSTAT,  MET,STYPE,'NAME'
    26,    27,'@1', 1.00000E-4,  150.00,  150.00,  150.00,  150.00,  150.00,  150.00,  150.00,  150.00,  150.00,  150.00,  150.00,  150.00,    1,    1,    2,    2,'SWD30 CLOSED                            '
0 / END OF SYSTEM SWITCHING DEVICE DATA, BEGIN TRANSFORMER DATA
@!   I,     J,     K,'CKT',CW,CZ,CM,     MAG1,        MAG2,NMETR,               'N A M E',               STAT,O1,  F1,    O2,  F2,    O3,  F3,    O4,  F4,     'VECGRP', ZCOD
@!   R1-2,       X1-2,   SBASE1-2,     R2-3,       X2-3,   SBASE2-3,     R3-1,       X3-1,   SBASE3-1, VMSTAR,   ANSTAR
@!WINDV1,  NOMV1,    ANG1,  RATE1-1,  RATE1-2,  RATE1-3,  RATE1-4,  RATE1-5,  RATE1-6,  RATE1-7,  RATE1-8,  RATE1-9, RATE1-10, RATE1-11, RATE1-12,COD1,CONT1,   RMA1,    RMI1,    VMA1,    VMI1, NTP1,TAB1,  CR1,     CX1,   CNXA1,NOD1
@!WINDV2,  NOMV2,    ANG2,  RATE2-1,  RATE2-2,  RATE2-3,  RATE2-4,  RATE2-5,  RATE2-6,  RATE2-7,  RATE2-8,  RATE2-9, RATE2-10, RATE2-11, RATE2-12,COD2,CONT2,   RMA2,    RMI2,    VMA2,    VMI2, NTP2,TAB2,  CR2,     CX2,   CNXA2,NOD2
@!WINDV3,  NOMV3,    ANG3,  RATE3-1,  RATE3-2,  RATE3-3,  RATE3-4,  RATE3-5,  RATE3-6,  RATE3-7,  RATE3-8,  RATE3-9, RATE3-10, RATE3-11, RATE3-12,COD3,CONT3,   RMA3,    RMI3,    VMA3,    VMI3, NTP3,TAB3,  CR3,     CX3,   CNXA3,NOD3
     4,    11,     0,'1 ', 1, 1, 1, 5.00000E-05, 5.00000E-04,1,'XF 500/230                              ',1,   1,1.0000,   0,1.0000,   0,1.0000,   0,1.0000,'            '
 2.00000E-03, 8.00000E-02,   100.00
1.00000,   0.000,   0.000,   300.00,   300.00,   300.00,     0.00,     0.00,     0.00,     0.00,     0.00,     0.00,     0.00,     0.00,     0.00, 0,      0, 1.10000, 0.90000, 1.05000, 0.95000,  33, 0, 0.00000, 0.00000,  0.000,   0
1.00000,   0.000
     8,    11,     0,'1 ', 1, 1, 1, 5.00000E-05, 5.00000E-04,1,'XF 345/230                              ',1,   1,1.0000,   0,1.0000,   0,1.0000,   0,1.0000,'            '
 2.00000E-03, 7.00000E-02,   100.00
1.00000,   0.000,   0.000,   250.00,   250.00,   250.00,     0.00,     0.00,     0.00,     0.00,     0.00,     0.00,     0.00,     0.00,     0.00, 0,      0, 1.10000, 0.90000, 1.05000, 0.95000,  33, 0, 0.00000, 0.00000,  0.000,   0
1.00000,   0.000
    18,    19,     0,'1 ', 1, 1, 1, 1.00000E-04, 1.00000E-03,1,'ULTC A LOCAL                            ',1,   1,1.0000,   0,1.0000,   0,1.0000,   0,1.0000,'            '
 4.00000E-03, 9.00000E-02,   100.00
1.00000,   0.000,   0.000,   150.00,   150.00,   150.00,     0.00,     0.00,     0.00,     0.00,     0.00,     0.00,     0.00,     0.00,     0.00, 1,     19, 1.05000, 0.95000, 1.02000, 0.99000,   9, 0, 0.00000, 0.00000,  0.000,   0
1.00000,   0.000
    19,    21,     0,'1 ', 1, 1, 1, 5.00000E-05, 5.00000E-04,1,'XF AUX 115/13                           ',1,   1,1.0000,   0,1.0000,   0,1.0000,   0,1.0000,'            '
 6.00000E-03, 8.00000E-02,   100.00
1.00000,   0.000,   0.000,    80.00,    80.00,    80.00,     0.00,     0.00,     0.00,     0.00,     0.00,     0.00,     0.00,     0.00,     0.00, 0,      0, 1.10000, 0.90000, 1.05000, 0.95000,  33, 0, 0.00000, 0.00000,  0.000,   0
1.00000,   0.000
    22,    23,     0,'1 ', 1, 1, 1, 1.00000E-04, 1.00000E-03,1,'ULTC B REMOTE                           ',1,   1,1.0000,   0,1.0000,   0,1.0000,   0,1.0000,'            '
 4.00000E-03, 9.00000E-02,   100.00
1.00000,   0.000,   0.000,   150.00,   150.00,   150.00,     0.00,     0.00,     0.00,     0.00,     0.00,     0.00,     0.00,     0.00,     0.00, 1,     24, 1.05000, 0.95000, 1.02000, 0.99000,   9, 0, 0.00000, 0.00000,  0.000,   0
1.00000,   0.000
0 / END OF TRANSFORMER DATA, BEGIN AREA DATA
@! I,   ISW,     PDES,      PTOL,    'ARNAME'
   1,     1,     0.000,    10.000,'AREA1       '
0 / END OF AREA DATA, BEGIN TWO-TERMINAL DC DATA
@!  'NAME',   MDC,     RDC,      SETVL,     VSCHD,     VCMOD,     RCOMP,    DELTI,METER    DCVMIN,CCCITMX, CCCACC
@! IPR,NBR,ANMXR,ANMNR,   RCR,    XCR,  EBASR,  TRR,    TAPR,   TMXR,   TMNR,   STPR,    ICR,   IFR,   ITR,'IDR', XCAPR,NDR
@! IPI,NBI,ANMXI,ANMNI,   RCI,    XCI,  EBASI,  TRI,    TAPI,   TMXI,   TMNI,   STPI,    ICI,   IFI,   ITI,'IDI', XCAPI,NDI
"DC30        ",1,    5.0000,     60.00,    400.00,    360.00,    5.0000,   0.10000,'R',      0.00, 100,   1.00000
     6,  4,17.50,12.50, 0.0000, 5.0000, 500.0,1.00000,1.25000,1.25000,0.92500,0.01250,     0,     0,     0,'1 ', 0.0000,  0
     7,  4,17.00,17.00, 0.0000, 5.0000, 345.0,1.00000,1.30500,1.30500,0.96600,0.01250,     0,     0,     0,'1 ', 0.0000,  0
0 / END OF TWO-TERMINAL DC DATA, BEGIN VSC DC LINE DATA
@!  'NAME',   MDC,     RDC,   O1,  F1,    O2,  F2,    O3,  F3,    O4,  F4
@!IBUS,TYPE,MODE,     DCSET,   ACSET,     ALOSS,     BLOSS,   MINLOSS,     SMAX,      IMAX,   PWF,        MAXQ,      MINQ, VSREG,  RMPCT,NREG
0 / END OF VSC DC LINE DATA, BEGIN IMPEDANCE CORRECTION DATA
@!I,   T1,    Re(F1),  Im(F1),    T2,    Re(F2),  Im(F2),    T3,    Re(F3),  Im(F3),    T4,    Re(F4),  Im(F4),    T5,    Re(F5),  Im(F5),    T6,    Re(F6),  Im(F6)
@!     T7,    Re(F7),  Im(F7),    T8,    Re(F8),  Im(F8),    T9,    Re(F9),  Im(F9),    T10,  Re(F10), Im(F10),    T11,  Re(F11), Im(F11),    T12,  Re(F12), Im(F12)
@!      ...
0 / END OF IMPEDANCE CORRECTION DATA, BEGIN MULTI-TERMINAL DC DATA
@!  'NAME',    NCONV,NDCBS,NDCLN,  MDC, VCONV,     VCMOD, VCONVN
@!  IB, N,ANGMX,ANGMN,    RC,      XC,    EBAS,   TR,    TAP,    TPMX,   TPMN,   TSTP,     SETVL,   DCPF,    MARG,CNVCOD
@!IDC, IB,AREA,ZONE,   'DCNAME',  IDC2,   RGRND,OWNER
@!IDC,JDC,'DCCKT',MET,   RDC,        LDC
0 / END OF MULTI-TERMINAL DC DATA, BEGIN MULTI-SECTION LINE DATA
@!   I,     J,'ID',MET,DUM1,  DUM2,  DUM3,  DUM4,  DUM5,  DUM6,  DUM7,  DUM8,  DUM9
0 / END OF MULTI-SECTION LINE DATA, BEGIN ZONE DATA
@! I,   'ZONAME'
  10,'Z10_500     '
  20,'Z20_345_DC  '
  30,'Z30_Q_CTRL  '
  40,'Z40_XFMR    '
  50,'Z50_SWDEV   '
0 / END OF ZONE DATA, BEGIN INTER-AREA TRANSFER DATA
@!ARFROM,ARTO,'TRID', PTRAN
0 / END OF INTER-AREA TRANSFER DATA, BEGIN OWNER DATA
@! I,   'OWNAME'
   1,'OWNER1      '
0 / END OF OWNER DATA, BEGIN FACTS DEVICE DATA
@!  'NAME',         I,     J,MODE,   PDES,      QDES,  VSET,      SHMX,      TRMX,   VTMN,   VTMX,   VSMX,      IMX,     LINX,   RMPCT,OWNER,    SET1,      SET2,VSREF, FCREG,   'MNAME'    ,NREG
"STATCON30   ",    16,     0,1,     0.000,     0.000,1.01500,    60.000,     0.000,0.90000,1.10000,1.00000,     0.000, 0.05000,  100.0,   1,   0.00000,   0.00000,   0,    13,"            ",   0
0 / END OF FACTS DEVICE DATA, BEGIN SWITCHED SHUNT DATA
@!  I,MODSW,ADJM,ST, VSWHI,  VSWLO, SWREG,  RMPCT,   'RMIDNT',      BINIT,N1,     B1, N2,     B2, N3,     B3, N4,     B4, N5,     B5, N6,     B6, N7,     B7, N8,     B8, NREG
    14,  1,  0,  1,1.02000,1.00000,    13,   50.0,'            ',    0.00, 3,    5.00
    15,  1,  0,  1,1.02000,1.00000,    13,   50.0,'            ',    0.00, 3,    5.00
    28,  2,  0,  1,1.01000,1.01000,    29,  100.0,'            ',  -10.00, 1,  -10.00, 1,   30.00
0 / END OF SWITCHED SHUNT DATA, BEGIN GNE DATA
@!  'NAME',        'MODEL',     NTERM,BUS1...BUSNTERM,NREAL,NINTG,NCHAR
@!ST,OWNER,NMETR
@! REAL1...REAL(MIN(10,NREAL))
@! INTG1...INTG(MIN(10,NINTG))
@! CHAR1...CHAR(MIN(10,NCHAR))
0 / END OF GNE DATA, BEGIN INDUCTION MACHINE DATA
@!   I,'ID',ST,SC,DC,AREA,ZONE,OWNER,TC,BC,  MBASE, RATEKV,PC,  PSET,      H,       A,       B,       D,       E,     RA,        XA,        XM,        R1,        X1,        R2,        X2,        X3,       E1,    SE1,   E2,    SE2,   IA1,   IA2, XAMULT
0 / END OF INDUCTION MACHINE DATA, BEGIN SUBSTATION DATA
0 / END OF SUBSTATION DATA
Q
